VERSION 17
*******************************************************************************
*** TRNSYS input file (deck) generated by TrnsysStudio
*** on Montag, August 26, 2013 at 18:12
*** from TrnsysStudio project: C:\Trnsys17\MyProjects\Type6139\test\FMIProject2.tpf
*** 
*** If you edit this file, use the File/Import TRNSYS Input File function in 
*** TrnsysStudio to update the project. 
*** 
*** If you have problems, questions or suggestions please contact your local 
*** TRNSYS distributor or mailto:software@cstb.fr 
*** 
*******************************************************************************


*******************************************************************************
*** Units 
*******************************************************************************

*******************************************************************************
*** Control cards
*******************************************************************************
* START, STOP and STEP
CONSTANTS 3
START=0
STOP=168
STEP=0.125
SIMULATION 	 START	 STOP	 STEP	! Start time	End time	Time step
TOLERANCES 0.001 0.001			! Integration	 Convergence
LIMITS 30 500 50				! Max iterations	Max warnings	Trace limit
DFQ 1					! TRNSYS numerical integration solver method
WIDTH 80				! TRNSYS output file width, number of characters
LIST 					! NOLIST statement
					! MAP statement
SOLVER 0 1 1				! Solver statement	Minimum relaxation factor	Maximum relaxation factor
NAN_CHECK 0				! Nan DEBUG statement
OVERWRITE_CHECK 0			! Overwrite DEBUG statement
TIME_REPORT 0			! disable time report
EQSOLVER 0				! EQUATION SOLVER statement
* User defined CONSTANTS 


* Model "Plotter" (Type 65)
* 

UNIT 3 TYPE 65	 Plotter
*$UNIT_NAME Plotter
*$MODEL .\Output\Online Plotter\Online Plotter Without File\Type65d.tmf
*$POSITION 649 307
*$LAYER Main # 
PARAMETERS 12
2		! 1 Nb. of left-axis variables
2		! 2 Nb. of right-axis variables
-5.0		! 3 Left axis minimum
55.0		! 4 Left axis maximum
-5.0		! 5 Right axis minimum
55.0		! 6 Right axis maximum
1		! 7 Number of plots per simulation
12		! 8 X-axis gridpoints
0		! 9 Shut off Online w/o removing
-1		! 10 Logical unit for output file
0		! 11 Output file units
0		! 12 Output file delimiter
INPUTS 4
4,1 		! Type203:out1 ->Left axis variable-1
6,1 		! Type203-2:out2 ->Left axis variable-2
5,1 		! FMI Interface:output-1 ->Right axis variable-1
5,2 		! FMI Interface:output-2 ->Right axis variable-2
*** INITIAL INPUT VALUES
203_out_1 203_out_2 FMI_out_1 FMI_out_2 
LABELS  3
"Type203 output"
"Type6139 output"
"FMI Interface Test"
*------------------------------------------------------------------------------

* Model "Type203" (Type 203)
* 

UNIT 4 TYPE 203	 Type203
*$UNIT_NAME Type203
*$MODEL .\My Components\Type203.tmf
*$POSITION 413 179
*$LAYER Main # 
*$# This is my first component for TRNSYS ever!
INPUTS 1
5,1 		! FMI Interface:output-1 ->inp1
*** INITIAL INPUT VALUES
0 
*------------------------------------------------------------------------------

* Model "FMI Interface" (Type 6139)
* 

UNIT 5 TYPE 6139	 FMI Interface
*$UNIT_NAME FMI Interface
*$MODEL .\My Components\Type6139.tmf
*$POSITION 408 307
*$LAYER Main # 
*$# This is my first component for TRNSYS ever!
PARAMETERS 2
2		! 1 number of inputs
2		! 2 number of outputs
INPUTS 2
4,1 		! Type203:out1 ->input-1
6,1 		! Type203-2:out2 ->input-2
*** INITIAL INPUT VALUES
0 0 
LABELS 2
"input1, input2"
"output1,output2"
*------------------------------------------------------------------------------

* Model "Type203-2" (Type 203)
* 

UNIT 6 TYPE 203	 Type203-2
*$UNIT_NAME Type203-2
*$MODEL .\My Components\Type203.tmf
*$POSITION 413 435
*$LAYER Main # 
*$# This is my first component for TRNSYS ever!
INPUTS 1
5,2 		! FMI Interface:output-2 ->inp2
*** INITIAL INPUT VALUES
0 
*------------------------------------------------------------------------------

END
