VERSION 17
*******************************************************************************
*** TRNSYS input file (deck) generated by TrnsysStudio
*** on Montag, Juni 23, 2014 at 13:46
*** from TrnsysStudio project: C:\Development\fmipp\export\examples\trnsys17\test\Type6139_Test.tpf
*** 
*** If you edit this file, use the File/Import TRNSYS Input File function in 
*** TrnsysStudio to update the project. 
*** 
*** If you have problems, questions or suggestions please contact your local 
*** TRNSYS distributor or mailto:software@cstb.fr 
*** 
*******************************************************************************


*******************************************************************************
*** Units 
*******************************************************************************

*******************************************************************************
*** Control cards
*******************************************************************************
* START, STOP and STEP
CONSTANTS 3
START=0
STOP=100
STEP=0.125
SIMULATION 	 START	 STOP	 STEP	! Start time	End time	Time step
TOLERANCES 0.001 0.001			! Integration	 Convergence
LIMITS 30 500 50				! Max iterations	Max warnings	Trace limit
DFQ 1					! TRNSYS numerical integration solver method
WIDTH 80				! TRNSYS output file width, number of characters
LIST 					! NOLIST statement
					! MAP statement
SOLVER 0 1 1				! Solver statement	Minimum relaxation factor	Maximum relaxation factor
NAN_CHECK 0				! Nan DEBUG statement
OVERWRITE_CHECK 0			! Overwrite DEBUG statement
TIME_REPORT 0			! disable time report
EQSOLVER 0				! EQUATION SOLVER statement
* User defined CONSTANTS 


* Model "Type6139" (Type 6139)
* 

UNIT 2 TYPE 6139	 Type6139
*$UNIT_NAME Type6139
*$MODEL .\My Components\Type6139.tmf
*$POSITION 82 212
*$LAYER Main # 
*$# This is my first component for TRNSYS ever!
PARAMETERS 2
1		! 1 number of inputs
1		! 2 number of outputs
INPUTS 1
FMI_out		! Equa:FMI_out ->FMI_out
*** INITIAL INPUT VALUES
0 
LABELS 2
"FMI_in"
"FMI_out"
*------------------------------------------------------------------------------

* EQUATIONS "Equa"
* 
EQUATIONS 1
FMI_out = [2,1] * SIN( 360 * TIME / 40 )
*$UNIT_NAME Equa
*$LAYER Main
*$POSITION 83 63

*------------------------------------------------------------------------------


* Model "Type65d" (Type 65)
* 

UNIT 4 TYPE 65	 Type65d
*$UNIT_NAME Type65d
*$MODEL .\Output\Online Plotter\Online Plotter Without File\Type65d.tmf
*$POSITION 229 138
*$LAYER Main # 
PARAMETERS 12
2		! 1 Nb. of left-axis variables
0		! 2 Nb. of right-axis variables
-1.5		! 3 Left axis minimum
1.5		! 4 Left axis maximum
0.0		! 5 Right axis minimum
1000.0		! 6 Right axis maximum
1		! 7 Number of plots per simulation
12		! 8 X-axis gridpoints
0		! 9 Shut off Online w/o removing
-1		! 10 Logical unit for output file
0		! 11 Output file units
0		! 12 Output file delimiter
INPUTS 2
2,1 		! Type6139:FMI_in ->Left axis variable-1
FMI_out		! Equa:FMI_out ->Left axis variable-2
*** INITIAL INPUT VALUES
FMI_in FMI_out 
LABELS  3
"FMI_in vs. FMI_out"
""
"Type6139 Test"
*------------------------------------------------------------------------------

END
