VERSION 17
*******************************************************************************
*** TRNSYS input file (deck) generated by TrnsysStudio
*** on Friday, April 17, 2015 at 14:28
*** from TrnsysStudio project: D:\Trnsys17\MyProjects\Project4\Type6139_Test.tpf
*** 
*** If you edit this file, use the File/Import TRNSYS Input File function in 
*** TrnsysStudio to update the project. 
*** 
*** If you have problems, questions or suggestions please contact your local 
*** TRNSYS distributor or mailto:software@cstb.fr 
*** 
*******************************************************************************


*******************************************************************************
*** Units 
*******************************************************************************

*******************************************************************************
*** Control cards
*******************************************************************************
* START, STOP and STEP
CONSTANTS 3
START=0
STOP=100
STEP=0.125
SIMULATION 	 START	 STOP	 STEP	! Start time	End time	Time step
TOLERANCES 0.001 0.001			! Integration	 Convergence
LIMITS 30 500 50				! Max iterations	Max warnings	Trace limit
DFQ 1					! TRNSYS numerical integration solver method
WIDTH 80				! TRNSYS output file width, number of characters
LIST 					! NOLIST statement
					! MAP statement
SOLVER 0 1 1				! Solver statement	Minimum relaxation factor	Maximum relaxation factor
NAN_CHECK 0				! Nan DEBUG statement
OVERWRITE_CHECK 0			! Overwrite DEBUG statement
TIME_REPORT 0			! disable time report
EQSOLVER 0				! EQUATION SOLVER statement
* User defined CONSTANTS 


* EQUATIONS "Equa"
* 
EQUATIONS 1
FMI_out = [5,1] * SIN( 360 * TIME / 40 )
*$UNIT_NAME Equa
*$LAYER Main
*$POSITION 212 31

*------------------------------------------------------------------------------


* Model "Type65d" (Type 65)
* 

UNIT 4 TYPE 65	 Type65d
*$UNIT_NAME Type65d
*$MODEL .\Output\Online Plotter\Online Plotter Without File\Type65d.tmf
*$POSITION 338 116
*$LAYER Main # 
PARAMETERS 12
2		! 1 Nb. of left-axis variables
0		! 2 Nb. of right-axis variables
-1.5		! 3 Left axis minimum
1.5		! 4 Left axis maximum
0.0		! 5 Right axis minimum
1000.0		! 6 Right axis maximum
1		! 7 Number of plots per simulation
12		! 8 X-axis gridpoints
0		! 9 Shut off Online w/o removing
-1		! 10 Logical unit for output file
0		! 11 Output file units
0		! 12 Output file delimiter
INPUTS 2
5,1 		! Type6139a:Type6139a output ->Left axis variable-1
FMI_out		! Equa:FMI_out ->Left axis variable-2
*** INITIAL INPUT VALUES
FMI_in FMI_out 
LABELS  3
"FMI_in vs. FMI_out"
""
"Type6139 Test"
*------------------------------------------------------------------------------

* Model "Type6139a" (Type 6139)
* 

UNIT 5 TYPE 6139	 Type6139a
*$UNIT_NAME Type6139a
*$MODEL .\My Components\Type6139a.tmf
*$POSITION 97 116
*$LAYER Main # 
PARAMETERS 1
1		! 1 number of FMI inputs
LABELS 2
"FMI input interface"
"FMI_in"
*------------------------------------------------------------------------------

* Model "Type6139b" (Type 6139)
* 

UNIT 6 TYPE 6139	 Type6139b
*$UNIT_NAME Type6139b
*$MODEL .\My Components\Type6139b.tmf
*$POSITION 333 31
*$LAYER Main # 
PARAMETERS 1
1		! 1 number of FMI outputs
INPUTS 1
FMI_out		! Equa:FMI_out ->Type6139b input
*** INITIAL INPUT VALUES
0 
LABELS 2
"FMI output interface"
"FMI_out"
*------------------------------------------------------------------------------

END
